Version 4
SHEET 1 880 680
WIRE -528 64 -576 64
WIRE -432 64 -528 64
WIRE -256 64 -352 64
WIRE -736 96 -816 96
WIRE -576 96 -576 64
WIRE -576 96 -592 96
WIRE -256 96 -256 64
WIRE -176 96 -256 96
WIRE -16 96 -16 64
WIRE -16 96 -32 96
WIRE -432 144 -432 64
WIRE -256 144 -256 96
WIRE -736 176 -816 176
WIRE -576 176 -592 176
WIRE -176 176 -192 176
WIRE -16 176 -32 176
WIRE -576 224 -576 176
WIRE -528 224 -576 224
WIRE -432 224 -528 224
WIRE -256 224 -352 224
WIRE -192 224 -192 176
WIRE -192 224 -256 224
WIRE -816 240 -816 176
WIRE -432 240 -432 224
WIRE -256 240 -256 224
WIRE -16 240 -16 176
FLAG -432 240 0
FLAG -256 240 0
FLAG -16 240 0
FLAG -16 64 Vout
FLAG -816 240 0
SYMBOL SLL -528 224 R0
WINDOW 0 16 -73 Left 2
WINDOW 3 16 -62 Left 2
WINDOW 123 16 -51 Left 2
SYMATTR InstName L1
SYMATTR Value value={L_s}
SYMBOL SLC -432 144 R0
WINDOW 0 6 -7 Left 2
WINDOW 3 6 4 Left 2
WINDOW 123 7 16 Left 2
SYMATTR InstName C1
SYMATTR Value value={C_s}
SYMBOL SLR -528 64 R0
WINDOW 123 16 35 Left 2
WINDOW 39 16 46 Left 2
WINDOW 40 16 57 Left 2
SYMATTR InstName R1
SYMATTR Value value={R_s}
SYMBOL SLL -352 224 R0
WINDOW 0 18 -72 Left 2
WINDOW 3 19 -61 Left 2
WINDOW 123 19 -50 Left 2
SYMATTR InstName L2
SYMATTR Value value={L_r}
SYMBOL SLC -256 144 R0
WINDOW 0 11 -2 Left 2
WINDOW 3 12 8 Left 2
WINDOW 123 12 19 Left 2
SYMATTR InstName C2
SYMATTR Value value={C_r}
SYMBOL SLR -352 64 R0
WINDOW 123 17 34 Left 2
WINDOW 39 17 43 Left 2
WINDOW 40 17 53 Left 2
SYMATTR InstName R2
SYMATTR Value value={R_r}
SYMBOL SLABCD -656 80 R0
SYMATTR InstName U1
SYMBOL SLV -816 96 R0
SYMATTR InstName V1
SYMBOL SLABCD -96 80 R0
WINDOW 0 -80 -21 Left 2
WINDOW 3 -80 -13 Left 2
SYMATTR InstName U2
TEXT -408 240 Left 2 !K1 L1 L2 {k_c}
