Version 4
SHEET 1 880 680
WIRE 192 64 96 64
WIRE 368 64 272 64
WIRE 192 144 192 64
WIRE 368 144 368 64
WIRE 192 224 96 224
WIRE 368 224 272 224
WIRE 192 240 192 224
WIRE 368 240 368 224
FLAG 192 240 0
FLAG 368 240 0
SYMBOL SLL 96 224 R0
WINDOW 0 16 -73 Left 2
WINDOW 3 16 -62 Left 2
WINDOW 123 16 -51 Left 2
SYMATTR InstName L1
SYMATTR Value value={L_s}
SYMBOL SLC 192 144 R0
WINDOW 0 6 -7 Left 2
WINDOW 3 6 4 Left 2
WINDOW 123 7 16 Left 2
SYMATTR InstName C1
SYMATTR Value value={C_s}
SYMBOL SLR 96 64 R0
WINDOW 123 16 35 Left 2
WINDOW 39 16 46 Left 2
WINDOW 40 16 57 Left 2
SYMATTR InstName R1
SYMATTR Value value={R_s}
SYMBOL SLL 272 224 R0
WINDOW 0 18 -72 Left 2
WINDOW 3 19 -61 Left 2
WINDOW 123 19 -50 Left 2
SYMATTR InstName L2
SYMATTR Value value={L_r}
SYMBOL SLC 368 144 R0
WINDOW 0 11 -2 Left 2
WINDOW 3 12 8 Left 2
WINDOW 123 12 19 Left 2
SYMATTR InstName C2
SYMATTR Value value={C_r}
SYMBOL SLR 272 64 R0
WINDOW 123 17 34 Left 2
WINDOW 39 17 43 Left 2
WINDOW 40 17 53 Left 2
SYMATTR InstName R2
SYMATTR Value value={R_r}
TEXT 208 240 Left 2 !K1 L1 L2 {k_c}
