Version 4
SHEET 1 880 680
WIRE 192 64 64 64
WIRE 272 64 224 64
WIRE 320 64 272 64
WIRE 416 64 320 64
WIRE 496 64 416 64
WIRE 416 80 416 64
WIRE 64 112 64 64
WIRE 320 128 320 64
WIRE 496 128 496 64
WIRE 64 224 64 192
WIRE 192 224 64 224
WIRE 320 224 320 208
WIRE 320 224 224 224
WIRE 416 224 416 160
WIRE 416 224 320 224
WIRE 496 224 496 208
WIRE 496 224 416 224
WIRE 64 240 64 224
WIRE 320 240 320 224
FLAG 64 240 0
FLAG 320 240 0
FLAG 272 64 out
SYMBOL SLL 192 224 M0
WINDOW 0 15 -42 Left 2
WINDOW 3 16 -29 Left 2
WINDOW 123 17 -16 Left 2
SYMATTR InstName L1
SYMATTR Value value={L_s}
SYMBOL SLR 192 64 M0
WINDOW 3 19 24 Left 2
WINDOW 123 18 36 Left 2
WINDOW 39 19 47 Left 2
WINDOW 40 19 57 Left 2
SYMATTR Value value={R_s}
SYMATTR InstName R1
SYMBOL SLL 224 224 R0
WINDOW 0 16 -49 Left 2
WINDOW 123 16 -27 Left 2
SYMATTR InstName L2
SYMATTR Value value={L_r}
SYMBOL SLC 320 128 R0
WINDOW 0 10 55 Left 2
WINDOW 3 10 67 Left 2
WINDOW 123 10 79 Left 2
SYMATTR InstName C1
SYMATTR Value value={C_r}
SYMBOL SLR 224 64 R0
WINDOW 3 14 24 Left 2
WINDOW 123 14 35 Left 2
WINDOW 39 13 46 Left 2
WINDOW 40 14 58 Left 2
SYMATTR Value value={R_r}
SYMATTR InstName R2
SYMBOL SLV 64 112 R0
WINDOW 0 32 16 Left 2
WINDOW 123 32 37 Left 2
WINDOW 39 31 48 Left 2
WINDOW 40 32 59 Left 2
SYMATTR InstName V1
SYMBOL SLR 416 80 M0
WINDOW 3 12 24 Left 2
WINDOW 123 10 38 Left 2
WINDOW 39 11 51 Left 2
WINDOW 40 12 64 Left 2
SYMATTR Value value={R_iRT}
SYMATTR InstName R4
SYMBOL SLC 496 128 M0
WINDOW 0 5 55 Left 2
WINDOW 3 0 67 Left 2
WINDOW 123 3 80 Left 2
SYMATTR InstName C2
SYMATTR Value value={C_iRT}
TEXT 176 240 Left 2 !K1 L1 L2 {k_c}
