Version 4
SHEET 1 880 680
WIRE 80 64 -48 64
WIRE -48 128 -48 64
WIRE 80 160 80 144
WIRE 112 160 80 160
WIRE 272 160 256 160
WIRE 288 160 272 160
WIRE -48 240 -48 208
WIRE 80 240 -48 240
WIRE 112 240 80 240
WIRE 272 240 256 240
WIRE -48 256 -48 240
WIRE 272 256 272 240
FLAG -48 256 0
FLAG 272 160 out
FLAG 272 256 0
SYMBOL SLL 80 240 M0
WINDOW 0 17 -42 Left 2
WINDOW 3 16 -30 Left 2
WINDOW 123 16 -17 Left 2
SYMATTR InstName L1
SYMATTR Value value={L_s}
SYMBOL SLR 80 64 R0
WINDOW 3 19 24 Left 2
WINDOW 123 18 36 Left 2
WINDOW 39 19 47 Left 2
WINDOW 40 19 57 Left 2
SYMATTR Value value={R_s}
SYMATTR InstName R1
SYMBOL SLV -48 128 R0
WINDOW 0 32 16 Left 2
WINDOW 123 32 37 Left 2
WINDOW 39 31 48 Left 2
WINDOW 40 32 59 Left 2
SYMATTR InstName V1
SYMBOL SLE 192 144 R0
WINDOW 0 -12 -26 Left 2
WINDOW 3 -13 -14 Left 2
SYMATTR InstName E1
SYMATTR Value {k_c*sqrt(L_r/L_s)}
