Version 4
SHEET 1 880 680
WIRE 192 64 112 64
WIRE 272 64 192 64
WIRE 288 64 272 64
WIRE 192 96 192 64
WIRE 288 96 288 64
WIRE 192 224 192 176
WIRE 192 224 112 224
WIRE 288 224 288 176
WIRE 288 224 192 224
WIRE 192 240 192 224
FLAG 192 240 0
FLAG 272 64 coil
SYMBOL SLL 112 224 R0
SYMATTR InstName L1
SYMATTR Value {L_c}
SYMBOL SLC 192 96 R0
SYMATTR InstName C1
SYMATTR Value {C_c}
SYMBOL SLR 112 64 R0
SYMATTR InstName R1
SYMATTR Value {R_c}
SYMBOL SLI 288 176 M180
WINDOW 0 41 24 Left 2
WINDOW 3 41 8 Left 2
WINDOW 123 41 -19 Left 2
WINDOW 39 41 -1 Left 2
WINDOW 40 41 -10 Left 2
SYMATTR InstName I1
